ckt24/master_ckt24.dss
Clear
Set DefaultBaseFrequency=60

New Circuit.ckt24 bus1 = SourceBus pu = 1.05 basekV=230 R1=0.63 X1=6.72 R0=4.07 X0=15.55 ! 0.0000000001

Redirect  Wiredata_ckt24.dss
Redirect  Linegeometry_ckt24.dss
Redirect  LineCodes_ckt24.dss
Redirect  TriplexLineCodes_ckt24.dss
Redirect  Substation_ckt24.dss

New XYCurve.MyPvsT  npts=4  xarray=[0  25  75  100]  yarray=[1.2  1.0  0.8  0.6]
New XYCurve.MyEff  npts=4  xarray=[0.1  0.2  0.4  1.0]  yarray=[1 1 1 1]

! Loadshapes for yearly simulations (normalized)
New Loadshape.LS_PhaseA npts=8760 interval=1 mult=(file=LS_PhaseA.txt) action=normalize 
New Loadshape.LS_PhaseB npts=8760 interval=1 mult=(file=LS_PhaseB.txt) action=normalize
New Loadshape.LS_PhaseC npts=8760 interval=1 mult=(file=LS_PhaseC.txt) action=normalize
New Loadshape.LS_ThreePhase npts=8760 interval=1 mult=(file=LS_ThreePhase.txt) action=normalize
New Loadshape.Other_Bus_Load npts=8760 interval=1 mult=(file=Other_Bus_Load.txt) action=normalize

Redirect  lines_ckt24.dss
Redirect  Capacitors_ckt24.dss
Redirect  stepxfmrs_ckt24.dss
Redirect  transformers_ckt24.dss
Redirect  sec_serv_ckt24.dss

!Redirect HW_Inverters.dss

!New vccs.SourceBus phases=1 bus1=sourcebus.1 Prated=50000000 Vrated=132000 Ppct=100 bp1='bp1_1phase' bp2='bp2_1phase' filter='z_1phase' fsample=10000


!Redirect VCCSDef_ThreephasePrimaryAll.dss

Redirect PVDef_ThreephasePrimaryAll.dss

!new Fault.Flt bus1=SourceBus phases=3 r=0.0001 ontime=0.0 temporary = No MinAmps = 0


!New XYCurve.vv_curve npts=4 Yarray=(1.0,1.0,-1.0,-1.0)   XArray=(0.5,0.95,1.05,1.5)
!New InvControl.InvPVCtrl mode=VOLTVAR voltage_curvex_ref=rated  vvc_curve1=vv_curve EventLog=yes



! Loads (allocated by XF kVA)
Redirect  Allocated_Loads_ckt24.dss
Redirect Other_Load_ckt24.dss
! set the initial allocation factors based on previousload allocations
Redirect  AllocationFactors_Base.Txt  !!! R=7 Vset=123

! Let OpenDSS define the voltage bases
Set voltagebases=[230,34.5,13.2,0.48,0.415,0.208]   ! Allowable voltage bases for this problem
Calcvoltagebases

! Define the monitors
Redirect Monitors_ckt24.dss

! optional energy meter. this was used to allocate the loads
New energymeter.Feeder element=line.fdr_05410 term=1 option=R action=C PhaseVolt=yes peakcurrent=(466,469,452)


!new monitor.invvi element=vccs.SourceBus terminal=1 mode=0
!new monitor.invpq element=vccs.SourceBus terminal=1 mode=1
!new monitor.invst element=vccs.SourceBus terminal=1 mode=3


! now that we have buses defined, define the bus coordinates so we can draw pictures
Buscoords buscoords_ckt24.dss
!set maxcontroliter = 1000
!set maxiterations = 1000
!set mode = direct
!solve
!plot profile phase = all
!solve

!solve
!set maxiterations = 1
!set mode = dynamic
!set stepsize = 0.002
!set number = 25000
!Set control = time
!solve