ckt24/ckt24_Power_elem_kVA.txt

CIRCUIT ELEMENT POWER FLOW

(Power Flow into element from indicated Bus)

Power Delivery Elements

  Bus                       Phase     kW     +j   kvar         kVA         PF

ELEMENT = "Vsource.SOURCE"
SOURCEBUS                       1        -0.0 +j     -0.0        0.0       0.9698
SOURCEBUS                       2        -0.0 +j     -0.0        0.0       0.9696
SOURCEBUS                       3        -0.0 +j     -0.0        0.0       0.9714
   TERMINAL TOTAL ...................    -0.0 +j     -0.0        0.0       0.9703
SOURCEBUS                       0         0.0 +j      0.0        0.0       1.0000
SOURCEBUS                       0         0.0 +j      0.0        0.0       1.0000
SOURCEBUS                       0         0.0 +j      0.0        0.0       1.0000
   TERMINAL TOTAL ...................     0.0 +j      0.0        0.0       1.0000

ELEMENT = "Transformer.SUBXFMR"
SOURCEBUS                       1         0.0 +j      0.0        0.0       0.9698
SOURCEBUS                       2         0.0 +j      0.0        0.0       0.9696
SOURCEBUS                       3         0.0 +j      0.0        0.0       0.9714
SOURCEBUS                       0         0.0 +j      0.0        0.0       1.0000
   TERMINAL TOTAL ...................     0.0 +j      0.0        0.0       0.9703
SUBXFMR_LSB                     1        -0.0 +j     -0.0        0.0       0.9944
SUBXFMR_LSB                     2        -0.0 +j     -0.0        0.0       0.9941
SUBXFMR_LSB                     3        -0.0 +j     -0.0        0.0       0.9950
SUBXFMR_LSB                     0         0.0 +j      0.0        0.0       1.0000
   TERMINAL TOTAL ...................    -0.0 +j     -0.0        0.0       0.9945

ELEMENT = "Line.FDR_05410"
SUBXFMR_LSB                     1         0.0 +j      0.0        0.0       0.9962
SUBXFMR_LSB                     2         0.0 +j      0.0        0.0       0.9956
SUBXFMR_LSB                     3         0.0 +j      0.0        0.0       0.9970
   TERMINAL TOTAL ...................     0.0 +j      0.0        0.0       0.9963
05410                           1        -0.0 +j     -0.0        0.0       0.9962
05410                           2        -0.0 +j     -0.0        0.0       0.9956
05410                           3        -0.0 +j     -0.0        0.0       0.9970
   TERMINAL TOTAL ...................    -0.0 +j     -0.0        0.0       0.9963

ELEMENT = "Line.05410_10000108732UG"
N284067                         1         0.0 +j      0.0        0.0       1.0000
   TERMINAL TOTAL ...................     0.0 +j      0.0        0.0       1.0000
N284069                         1        -0.0 +j     -0.0        0.0       0.0000
   TERMINAL TOTAL ...................    -0.0 +j     -0.0        0.0       0.0000

ELEMENT = "Line.05410_10000108797UG"
N292548                         1         0.0 +j      0.0        0.0       0.9844
N292548                         2         0.0 +j      0.0        0.0       0.9848
N292548                         3         0.0 +j      0.0        0.0       0.9848
   TERMINAL TOTAL ...................     0.0 +j      0.0        0.0       0.9846
N292535                         1        -0.0 +j     -0.0        0.0       0.9837
N292535                         2        -0.0 +j     -0.0        0.0       0.9839
N292535                         3        -0.0 +j     -0.0        0.0       0.9839
   TERMINAL TOTAL ...................    -0.0 +j     -0.0        0.0       0.9838

ELEMENT = "Line.05410_10000339601OH"
N284033_LO                      3         0.0 +j      0.0        0.0       0.9787
   TERMINAL TOTAL ...................     0.0 +j      0.0        0.0       0.9787
N284031                         3        -0.0 +j     -0.0        0.0       0.9787
   TERMINAL TOTAL ...................    -0.0 +j     -0.0        0.0       0.9787

ELEMENT = "Line.05410_10000339807OH"
N284158                         1        -0.0 +j     -0.0        0.0       0.9761
N284158                         2        -0.0 +j     -0.0        0.0       0.9731
N284158                         3        -0.0 +j      0.0        0.0      -0.0988
   TERMINAL TOTAL ...................    -0.0 +j     -0.0        0.0       0.9740
N284141                         1         0.0 +j      0.0        0.0       0.9762
N284141                         2         0.0 +j      0.0        0.0       0.9731
N284141                         3         0.0 +j     -0.0        0.0      -0.0989
   TERMINAL TOTAL ...................     0.0 +j      0.0        0.0       0.9740

ELEMENT = "Line.05410_10051444120OH"
N1381582                        1        -0.0 +j     -0.0        0.0       0.9954
   TERMINAL TOTAL ...................    -0.0 +j     -0.0        0.0       0.9954
N1413717                        1         0.0 +j      0.0        0.0       0.9954
   TERMINAL TOTAL ...................     0.0 +j      0.0        0.0       0.9954

ELEMENT = "Line.05410_10094019OH"
N284453                         1         0.0 +j     -0.0        0.0      -0.0000
   TERMINAL TOTAL ...................     0.0 +j     -0.0        0.0      -0.0000
N284454                         1        -0.0 +j      0.0        0.0      -0.7589
   TERMINAL TOTAL ...................    -0.0 +j      0.0        0.0      -0.7589

ELEMENT = "Line.05410_10105185UG"
N292280                         1         0.0 +j      0.0        0.0       0.9765
N292280                         2         0.0 +j      0.0        0.0       0.9765
N292280                         3         0.0 +j      0.0        0.0       0.9765
   TERMINAL TOTAL ...................     0.0 +j      0.0        0.0       0.9765
N292283                         1        -0.0 +j     -0.0        0.0       0.9753
N292283                         2        -0.0 +j     -0.0        0.0       0.9753
N292283                         3        -0.0 +j     -0.0        0.0       0.9752
   TERMINAL TOTAL ...................    -0.0 +j     -0.0        0.0       0.9753

ELEMENT = "Line.05410_103405UG"
N284404                         1         0.0 +j      0.0        0.0       0.9927
   TERMINAL TOTAL ...................     0.0 +j      0.0        0.0       0.9927
N284426                         1        -0.0 +j     -0.0        0.0       0.9861
   TERMINAL TOTAL ...................    -0.0 +j     -0.0        0.0       0.9861

ELEMENT = "Line.05410_103406UG"
N284426                         1         0.0 +j      0.0        0.0       0.9947
   TERMINAL TOTAL ...................     0.0 +j      0.0        0.0       0.9947
N292979                         1        -0.0 +j     -0.0        0.0       0.9761
   TERMINAL TOTAL ...................    -0.0 +j     -0.0        0.0       0.9761

ELEMENT = "Line.05410_103407UG"
N284382                         1         0.0 +j      0.0        0.0       0.9973
   TERMINAL TOTAL ...................     0.0 +j      0.0        0.0       0.9973
N284387                         1        -0.0 +j     -0.0        0.0       0.9968
   TERMINAL TOTAL ...................    -0.0 +j     -0.0        0.0       0.9968

ELEMENT = "Line.05410_103408UG"
N284397                         1        -0.0 +j      0.0        0.0      -0.7587
   TERMINAL TOTAL ...................    -0.0 +j      0.0        0.0      -0.7587
N284394                         1         0.0 +j     -0.0        0.0      -0.0000
   TERMINAL TOTAL ...................     0.0 +j     -0.0        0.0      -0.0000

ELEMENT = "Line.05410_103409UG"
N284394                         1        -0.0 +j      0.0        0.0      -0.9918
   TERMINAL TOTAL ...................    -0.0 +j      0.0        0.0      -0.9918
N284433                         1         0.0 +j     -0.0        0.0      -0.9534
   TERMINAL TOTAL ...................     0.0 +j     -0.0        0.0      -0.9534

ELEMENT = "Line.05410_103410UG"
N284433                         1        -0.0 +j     -0.0        0.0       0.9954
   TERMINAL TOTAL ...................    -0.0 +j     -0.0        0.0       0.9954
N284414                         1         0.0 +j      0.0        0.0       0.9986
   TERMINAL TOTAL ...................     0.0 +j      0.0        0.0       0.9986

ELEMENT = "Line.05410_103411UG"
N284367                         1        -0.0 +j     -0.0        0.0       0.9970
   TERMINAL TOTAL ...................    -0.0 +j     -0.0        0.0       0.9970
N284387                         1         0.0 +j      0.0        0.0       0.9979
   TERMINAL TOTAL ...................     0.0 +j      0.0        0.0       0.9979

ELEMENT = "Line.05410_103412UG"
N284414                         1        -0.0 +j     -0.0        0.0       0.9967
   TERMINAL TOTAL ...................    -0.0 +j     -0.0        0.0       0.9967
N284372                         1         0.0 +j      0.0        0.0       0.9999
   TERMINAL TOTAL ...................     0.0 +j      0.0        0.0       0.9999

ELEMENT = "Line.05410_103431UG"
N284372                         1        -0.0 +j     -0.0        0.0       0.9986
   TERMINAL TOTAL ...................    -0.0 +j     -0.0        0.0       0.9986
N284383                         1         0.0 +j      0.0        0.0       0.9997
   TERMINAL TOTAL ...................     0.0 +j      0.0        0.0       0.9997

ELEMENT = "Line.05410_107740UG"
N312486                         1        -0.0 +j     -0.0        0.0       0.9821
N312486                         2        -0.0 +j     -0.0        0.0       0.9767
   TERMINAL TOTAL ...................    -0.0 +j     -0.0        0.0       0.9770
N312424                         1         0.0 +j      0.0        0.0       0.9846
N312424                         2         0.0 +j      0.0        0.0       0.9768
   TERMINAL TOTAL ...................     0.0 +j      0.0        0.0       0.9774

ELEMENT = "Line.05410_107741UG"
N312492                         2        -0.0 +j     -0.0        0.0       0.9766
   TERMINAL TOTAL ...................    -0.0 +j     -0.0        0.0       0.9766
N312536                         2         0.0 +j      0.0        0.0       0.9770
   TERMINAL TOTAL ...................     0.0 +j      0.0        0.0       0.9770

ELEMENT = "Line.05410_107742UG"
N300533                         3        -0.0 +j     -0.0        0.0       0.9738
   TERMINAL TOTAL ...................    -0.0 +j     -0.0        0.0       0.9738
N312395                         3         0.0 +j      0.0        0.0       0.9777
   TERMINAL TOTAL ...................     0.0 +j      0.0        0.0       0.9777

ELEMENT = "Line.05410_107744UG"
N300557                         3        -0.0 +j     -0.0        0.0       0.9772
   TERMINAL TOTAL ...................    -0.0 +j     -0.0        0.0       0.9772
N300550                         3         0.0 +j      0.0        0.0       0.9773
   TERMINAL TOTAL ...................     0.0 +j      0.0        0.0       0.9773

ELEMENT = "Line.05410_107745UG"
N300576                         3        -0.0 +j     -0.0        0.0       0.9771
   TERMINAL TOTAL ...................    -0.0 +j     -0.0        0.0       0.9771
N300557                         3         0.0 +j      0.0        0.0       0.9774
   TERMINAL TOTAL ...................     0.0 +j      0.0        0.0       0.9774

ELEMENT = "Line.05410_107746UG"
N300591                         3        -0.0 +j     -0.0        0.0       0.9771
   TERMINAL TOTAL ...................    -0.0 +j     -0.0        0.0       0.9771
N300576                         3         0.0 +j      0.0        0.0       0.9773
   TERMINAL TOTAL ...................     0.0 +j      0.0        0.0       0.9773

ELEMENT = "Line.05410_107747UG"
N300591                         3         0.0 +j      0.0        0.0       0.9771
   TERMINAL TOTAL ...................     0.0 +j      0.0        0.0       0.9771
N312512                         3        -0.0 +j     -0.0        0.0       0.9767
   TERMINAL TOTAL ...................    -0.0 +j     -0.0        0.0       0.9767

ELEMENT = "Line.05410_107748UG"
N300612                         2         0.0 +j      0.0        0.0       0.9757
   TERMINAL TOTAL ...................     0.0 +j      0.0        0.0       0.9757
N300587                         2        -0.0 +j     -0.0        0.0       0.9755
   TERMINAL TOTAL ...................    -0.0 +j     -0.0        0.0       0.9755

ELEMENT = "Line.05410_107749UG"
N300566                         2        -0.0 +j     -0.0        0.0       0.9754
   TERMINAL TOTAL ...................    -0.0 +j     -0.0        0.0       0.9754
N300587                         2         0.0 +j      0.0        0.0       0.9762
   TERMINAL TOTAL ...................     0.0 +j      0.0        0.0       0.9762

ELEMENT = "Line.05410_107750UG"
N300555                         2        -0.0 +j     -0.0        0.0       0.9752
   TERMINAL TOTAL ...................    -0.0 +j     -0.0        0.0       0.9752
N300566                         2         0.0 +j      0.0        0.0       0.9757
   TERMINAL TOTAL ...................     0.0 +j      0.0        0.0       0.9757

ELEMENT = "Line.05410_107752UG"
N300570                         1         0.0 +j      0.0        0.0       0.9775
   TERMINAL TOTAL ...................     0.0 +j      0.0        0.0       0.9775
N300593                         1        -0.0 +j     -0.0        0.0       0.9772
   TERMINAL TOTAL ...................    -0.0 +j     -0.0        0.0       0.9772

ELEMENT = "Line.05410_107753UG"
N300593                         1         0.0 +j      0.0        0.0       0.9773
   TERMINAL TOTAL ...................     0.0 +j      0.0        0.0       0.9773
N300609                         1        -0.0 +j     -0.0        0.0       0.9772
   TERMINAL TOTAL ...................    -0.0 +j     -0.0        0.0       0.9772

ELEMENT = "Line.05410_107754UG"
N300609                         1         0.0 +j      0.0        0.0       0.9773
   TERMINAL TOTAL ...................     0.0 +j      0.0        0.0       0.9773
N300614                         1        -0.0 +j     -0.0        0.0       0.9773
   TERMINAL TOTAL ...................    -0.0 +j     -0.0        0.0       0.9773

ELEMENT = "Line.05410_107755UG"
N300468                         2         0.0 +j      0.0        0.0       0.9966
   TERMINAL TOTAL ...................     0.0 +j      0.0        0.0       0.9966
N300452                         2        -0.0 +j     -0.0        0.0       0.9702
   TERMINAL TOTAL ...................    -0.0 +j     -0.0        0.0       0.9702

ELEMENT = "Line.05410_107756UG"
N312429                         1         0.0 +j      0.0        0.0       0.9779
N312429                         2         0.0 +j      0.0        0.0       0.9794
N312429                         3         0.0 +j      0.0        0.0       0.9791
   TERMINAL TOTAL ...................     0.0 +j      0.0        0.0       0.9788
N312419                         1        -0.0 +j     -0.0        0.0       0.9766
N312419                         2        -0.0 +j     -0.0        0.0       0.9780
N312419                         3        -0.0 +j     -0.0        0.0       0.9778
   TERMINAL TOTAL ...................    -0.0 +j     -0.0        0.0       0.9775

ELEMENT = "Line.05410_107757UG"
N312351                         1         0.0 +j      0.0        0.0       0.9843
N312351                         2         0.0 +j      0.0        0.0       0.9855
N312351                         3         0.0 +j      0.0        0.0       0.9853
   TERMINAL TOTAL ...................     0.0 +j      0.0        0.0       0.9850
N312429                         1        -0.0 +j     -0.0        0.0       0.9757
N312429                         2        -0.0 +j     -0.0        0.0       0.9772
N312429                         3        -0.0 +j     -0.0        0.0       0.9769
   TERMINAL TOTAL ...................    -0.0 +j     -0.0        0.0       0.9766

ELEMENT = "Line.05410_107814UG"
N300674                         1        -0.0 +j     -0.0        0.0       0.9830
   TERMINAL TOTAL ...................    -0.0 +j     -0.0        0.0       0.9830
N300664                         1         0.0 +j      0.0        0.0       0.9838
   TERMINAL TOTAL ...................     0.0 +j      0.0        0.0       0.9838

ELEMENT = "Line.05410_107815UG"
N300676                         1        -0.0 +j     -0.0        0.0       0.9832
   TERMINAL TOTAL ...................    -0.0 +j     -0.0        0.0       0.9832
N300674                         1         0.0 +j      0.0        0.0       0.9844
   TERMINAL TOTAL ...................     0.0 +j      0.0        0.0       0.9844

ELEMENT = "Line.05410_107816UG"
N300654                         1         0.0 +j      0.0        0.0       0.9843
N300654                         3         0.0 +j      0.0        0.0       0.9918
   TERMINAL TOTAL ...................     0.0 +j      0.0        0.0       0.9894
N300656                         1        -0.0 +j     -0.0        0.0       0.9840
N300656                         3        -0.0 +j     -0.0        0.0       0.9917
   TERMINAL TOTAL ...................    -0.0 +j     -0.0        0.0       0.9892

ELEMENT = "Line.05410_107817UG"
N300717                         3        -0.0 +j     -0.0        0.0       0.9913
   TERMINAL TOTAL ...................    -0.0 +j     -0.0        0.0       0.9913
N300714                         3         0.0 +j      0.0        0.0       0.9916
   TERMINAL TOTAL ...................     0.0 +j      0.0        0.0       0.9916

ELEMENT = "Line.05410_107818UG"
N300719                         3        -0.0 +j     -0.0        0.0       0.9917
   TERMINAL TOTAL ...................    -0.0 +j     -0.0        0.0       0.9917
N300717                         3         0.0 +j      0.0        0.0       0.9922
   TERMINAL TOTAL ...................     0.0 +j      0.0        0.0       0.9922

ELEMENT = "Line.05410_107819UG"
N300742                         3         0.0 +j      0.0        0.0       0.9941
   TERMINAL TOTAL ...................     0.0 +j      0.0        0.0       0.9941
N300740                         3        -0.0 +j     -0.0        0.0       0.9936
   TERMINAL TOTAL ...................    -0.0 +j     -0.0        0.0       0.9936

ELEMENT = "Line.05410_107820UG"
N300740                         3         0.0 +j      0.0        0.0       0.9943
   TERMINAL TOTAL ...................     0.0 +j      0.0        0.0       0.9943
N300736                         3        -0.0 +j     -0.0        0.0       0.9935
   TERMINAL TOTAL ...................    -0.0 +j     -0.0        0.0       0.9935

ELEMENT = "Line.05410_107821UG"
N300750                         3        -0.0 +j     -0.0        0.0       0.9955
   TERMINAL TOTAL ...................    -0.0 +j     -0.0        0.0       0.9955
N300736                         3         0.0 +j      0.0        0.0       0.9967
   TERMINAL TOTAL ...................     0.0 +j      0.0        0.0       0.9967

ELEMENT = "Line.05410_107822UG"
N300762                         3        -0.0 +j     -0.0        0.0       0.9952
   TERMINAL TOTAL ...................    -0.0 +j     -0.0        0.0       0.9952
N300750                         3         0.0 +j      0.0        0.0       0.9974
   TERMINAL TOTAL ...................     0.0 +j      0.0        0.0       0.9974

ELEMENT = "Line.05410_107823UG"
N300764                         3        -0.0 +j     -0.0        0.0       0.9960
   TERMINAL TOTAL ...................    -0.0 +j     -0.0        0.0       0.9960
N300762                         3         0.0 +j      0.0        0.0       0.9974
   TERMINAL TOTAL ...................     0.0 +j      0.0        0.0       0.9974

ELEMENT = "Line.05410_107824UG"
N300678                         1        -0.0 +j     -0.0        0.0       0.9776
   TERMINAL TOTAL ...................    -0.0 +j     -0.0        0.0       0.9776
N300646                         1         0.0 +j      0.0        0.0       0.9781
   TERMINAL TOTAL ...................     0.0 +j      0.0        0.0       0.9781

ELEMENT = "Line.05410_107825UG"
N300728                         1         0.0 +j      0.0        0.0       0.6641
   TERMINAL TOTAL ...................     0.0 +j      0.0        0.0       0.6641
N300678                         1         0.0 +j     -0.0        0.0      -0.0000
   TERMINAL TOTAL ...................     0.0 +j     -0.0        0.0      -0.0000

ELEMENT = "Line.05410_107826UG"
N312566                         1        -0.0 +j     -0.0        0.0       0.9776
   TERMINAL TOTAL ...................    -0.0 +j     -0.0        0.0       0.9776
N300678                         1         0.0 +j      0.0        0.0       0.9780
   TERMINAL TOTAL ...................     0.0 +j      0.0        0.0       0.9780

ELEMENT = "Line.05410_107827UG"
N312588                         1        -0.0 +j     -0.0        0.0       0.9778
   TERMINAL TOTAL ...................    -0.0 +j     -0.0        0.0       0.9778
N312566                         1         0.0 +j      0.0        0.0       0.9782
   TERMINAL TOTAL ...................     0.0 +j      0.0        0.0       0.9782

ELEMENT = "Line.05410_107828UG"
N312588                         1         0.0 +j      0.0        0.0       0.9778
   TERMINAL TOTAL ...................     0.0 +j      0.0        0.0       0.9778
N312602                         1        -0.0 +j     -0.0        0.0       0.9772
   TERMINAL TOTAL ...................    -0.0 +j     -0.0        0.0       0.9772

ELEMENT = "Line.05410_107829UG"
N312602                         1         0.0 +j      0.0        0.0       0.9779
   TERMINAL TOTAL ...................     0.0 +j      0.0        0.0       0.9779
N312606                         1        -0.0 +j     -0.0        0.0       0.9779
   TERMINAL TOTAL ...................    -0.0 +j     -0.0        0.0       0.9779

ELEMENT = "Line.05410_107830UG"
N312610                         1        -0.0 +j      0.0        0.0      -0.7476
   TERMINAL TOTAL ...................    -0.0 +j      0.0        0.0      -0.7476
N312606                         1         0.0 +j     -0.0        0.0      -0.0000
   TERMINAL TOTAL ...................     0.0 +j     -0.0        0.0      -0.0000

ELEMENT = "Line.05410_107831UG"
N312595                         1        -0.0 +j     -0.0        0.0       0.9764
N312595                         2         0.0 +j      0.0        0.0       0.9774
   TERMINAL TOTAL ...................    -0.0 +j     -0.0        0.0       0.9489
N312599                         1         0.0 +j      0.0        0.0       0.9771
N312599                         2        -0.0 +j     -0.0        0.0       0.9766
   TERMINAL TOTAL ...................     0.0 +j      0.0        0.0       0.9866

ELEMENT = "Line.05410_107832UG"
N312615                         1         0.0 +j      0.0        0.0       0.2884
N312615                         2         0.0 +j      0.0        0.0       0.9751
   TERMINAL TOTAL ...................     0.0 +j      0.0        0.0       0.9724
N312625                         1        -0.0 +j     -0.0        0.0       0.2534
N312625                         2        -0.0 +j     -0.0        0.0       0.9747
   TERMINAL TOTAL ...................    -0.0 +j     -0.0        0.0       0.9715

ELEMENT = "Line.05410_107833UG"
N300612                         2        -0.0 +j     -0.0        0.0       0.9757
   TERMINAL TOTAL ...................    -0.0 +j     -0.0        0.0       0.9757
N300653                         2         0.0 +j      0.0        0.0       0.9761
   TERMINAL TOTAL ...................     0.0 +j      0.0        0.0       0.9761

ELEMENT = "Line.05410_107834UG"
N312486                         1         0.0 +j      0.0        0.0       0.9821
   TERMINAL TOTAL ...................     0.0 +j      0.0        0.0       0.9821
N312551                         1        -0.0 +j     -0.0        0.0       0.9756
   TERMINAL TOTAL ...................    -0.0 +j     -0.0        0.0       0.9756

ELEMENT = "Line.05410_107835UG"
N312595                         2         0.0 +j      0.0        0.0       0.9763
   TERMINAL TOTAL ...................     0.0 +j      0.0        0.0       0.9763
N312536                         2        -0.0 +j     -0.0        0.0       0.9761
   TERMINAL TOTAL ...................    -0.0 +j     -0.0        0.0       0.9761

ELEMENT = "Line.05410_107836UG"
N312512                         3         0.0 +j      0.0        0.0       0.9768
   TERMINAL TOTAL ...................     0.0 +j      0.0        0.0       0.9768
N312510                         3        -0.0 +j     -0.0        0.0       0.9768
   TERMINAL TOTAL ...................    -0.0 +j     -0.0        0.0       0.9768

ELEMENT = "Line.05410_107837UG"
N312584                         1         0.0 +j      0.0        0.0       0.9772
   TERMINAL TOTAL ...................     0.0 +j      0.0        0.0       0.9772
N312568                         1        -0.0 +j     -0.0        0.0       0.9753
   TERMINAL TOTAL ...................    -0.0 +j     -0.0        0.0       0.9753

ELEMENT = "Line.05410_107838UG"
N312584                         1        -0.0 +j     -0.0        0.0       0.9772
   TERMINAL TOTAL ...................    -0.0 +j     -0.0        0.0       0.9772
N312595                         1         0.0 +j      0.0        0.0       0.9780
   TERMINAL TOTAL ...................     0.0 +j      0.0        0.0       0.9780

ELEMENT = "Line.05410_107839UG"
N312509                         2        -0.0 +j     -0.0        0.0       0.9768
   TERMINAL TOTAL ...................    -0.0 +j     -0.0        0.0       0.9768
N312486                         2         0.0 +j      0.0        0.0       0.9768
   TERMINAL TOTAL ...................     0.0 +j      0.0        0.0       0.9768

ELEMENT = "Line.05410_107840UG"
N312509                         2         0.0 +j      0.0        0.0       0.9768
   TERMINAL TOTAL ...................     0.0 +j      0.0        0.0       0.9768
N312558                         2        -0.0 +j     -0.0        0.0       0.9766
   TERMINAL TOTAL ...................    -0.0 +j     -0.0        0.0       0.9766

ELEMENT = "Line.05410_107841UG"
N312581                         2        -0.0 +j     -0.0        0.0       0.9767
   TERMINAL TOTAL ...................    -0.0 +j     -0.0        0.0       0.9767
N312558                         2         0.0 +j      0.0        0.0       0.9768
   TERMINAL TOTAL ...................     0.0 +j      0.0        0.0       0.9768

ELEMENT = "Line.05410_108051UG"
N300646                         1        -0.0 +j     -0.0        0.0       0.9779
   TERMINAL TOTAL ...................    -0.0 +j     -0.0        0.0       0.9779
N300614                         1         0.0 +j      0.0        0.0       0.9782
   TERMINAL TOTAL ...................     0.0 +j      0.0        0.0       0.9782

ELEMENT = "Line.05410_108052UG"
N300656                         3         0.0 +j      0.0        0.0       0.9917
   TERMINAL TOTAL ...................     0.0 +j      0.0        0.0       0.9917
N300711                         3        -0.0 +j     -0.0        0.0       0.9905
   TERMINAL TOTAL ...................    -0.0 +j     -0.0        0.0       0.9905

ELEMENT = "Line.05410_108053UG"
N312366                         1         0.0 +j      0.0        0.0       0.9871
N312366                         2         0.0 +j      0.0        0.0       0.9765
   TERMINAL TOTAL ...................     0.0 +j      0.0        0.0       0.9771
N312424                         1        -0.0 +j     -0.0        0.0       0.9846
N312424                         2        -0.0 +j     -0.0        0.0       0.9764
   TERMINAL TOTAL ...................    -0.0 +j     -0.0        0.0       0.9768

ELEMENT = "Line.05410_108055UG"
N312345                         1         0.0 +j      0.0        0.0       0.9783
N312345                         2         0.0 +j      0.0        0.0       0.9794
N312345                         3         0.0 +j      0.0        0.0       0.9776
   TERMINAL TOTAL ...................     0.0 +j      0.0        0.0       0.9781
N300518                         1        -0.0 +j     -0.0        0.0       0.9779
N300518                         2        -0.0 +j     -0.0        0.0       0.9771
N300518                         3        -0.0 +j     -0.0        0.0       0.9772
   TERMINAL TOTAL ...................    -0.0 +j     -0.0        0.0       0.9776

ELEMENT = "Line.05410_108056UG"
N300519                         3         0.0 +j      0.0        0.0       0.9771
   TERMINAL TOTAL ...................     0.0 +j      0.0        0.0       0.9771
N300522                         3        -0.0 +j     -0.0        0.0       0.9771
   TERMINAL TOTAL ...................    -0.0 +j     -0.0        0.0       0.9771

ELEMENT = "Line.05410_108057UG"
N300524                         2         0.0 +j      0.0        0.0       0.9752
   TERMINAL TOTAL ...................     0.0 +j      0.0        0.0       0.9752
N300529                         2        -0.0 +j     -0.0        0.0       0.9750
   TERMINAL TOTAL ...................    -0.0 +j     -0.0        0.0       0.9750

ELEMENT = "Line.05410_108122UG"
N312395                         3        -0.0 +j     -0.0        0.0       0.9759
   TERMINAL TOTAL ...................    -0.0 +j     -0.0        0.0       0.9759
N312436                         3         0.0 +j      0.0        0.0       0.9768
   TERMINAL TOTAL ...................     0.0 +j      0.0        0.0       0.9768

ELEMENT = "Line.05410_108168UG"
N312366                         1        -0.0 +j     -0.0        0.0       0.9871
N312366                         2        -0.0 +j     -0.0        0.0       0.9765
   TERMINAL TOTAL ...................    -0.0 +j     -0.0        0.0       0.9771
N312340                         1         0.0 +j      0.0        0.0       0.9883
N312340                         2         0.0 +j      0.0        0.0       0.9765
   TERMINAL TOTAL ...................     0.0 +j      0.0        0.0       0.9772

ELEMENT = "Line.05410_108171UG"
...