ckt24/ckt24_VLN.Txt

SYMMETRICAL COMPONENT VOLTAGES BY BUS (for 3-phase buses)

Bus                          Mag:   V1 (kV)    p.u.     V2 (kV)   %V2/V1    V0 (kV)    %V0/V1

sourcebus                       139.4      1.049   0.005007   0.003593 9.07E-009 6.509E-009
subxfmr_lsb                     20.66      1.037    0.01466    0.07096  0.007571   0.03665
05410                           20.66      1.037    0.01466    0.07096  0.007571   0.03665
n284067                         20.29      1.018          0          0         0         0
n284069                         20.29      1.018          0          0         0         0
n292548                          20.4      1.024    0.08097     0.3969   0.05627    0.2759
n292535                          20.4      1.024      0.081     0.3971   0.05633    0.2762
n284033_lo                      7.727      1.014          0          0         0         0
n284031                         7.727      1.014          0          0         0         0
n284158                         20.37      1.023      0.076      0.373   0.03864    0.1896
n284141                         20.37      1.023    0.07605     0.3733   0.03831     0.188
n1381582                        20.07      1.008          0          0         0         0
n1413717                        20.07      1.008          0          0         0         0
n284453                         20.06      1.007          0          0         0         0
n284454                         20.06      1.007          0          0         0         0
n292280                         20.46      1.027    0.05397     0.2638   0.03633    0.1776
n292283                         20.46      1.027    0.05397     0.2638   0.03633    0.1776
n284404                         20.06      1.007          0          0         0         0
n284426                         20.06      1.007          0          0         0         0
n292979                         20.06      1.007          0          0         0         0
n284382                         20.06      1.007          0          0         0         0
n284387                         20.06      1.007          0          0         0         0
n284397                         20.04      1.006          0          0         0         0
n284394                         20.04      1.006          0          0         0         0
n284433                         20.04      1.006          0          0         0         0
n284414                         20.04      1.006          0          0         0         0
n284367                         20.05      1.007          0          0         0         0
n284372                         20.04      1.006          0          0         0         0
n284383                         20.04      1.006          0          0         0         0
n312486                         7.752      1.017          0          0         0         0
n312424                         7.753      1.017          0          0         0         0
n312492                          7.62     0.9999          0          0         0         0
n312536                         7.624          1          0          0         0         0
n300533                          7.77       1.02          0          0         0         0
n312395                          7.77       1.02          0          0         0         0
n300557                         7.781      1.021          0          0         0         0
n300550                         7.782      1.021          0          0         0         0
n300576                         7.778      1.021          0          0         0         0
n300591                         7.776       1.02          0          0         0         0
n312512                         7.774       1.02          0          0         0         0
n300612                         7.611     0.9987          0          0         0         0
n300587                         7.609     0.9984          0          0         0         0
n300566                         7.608     0.9982          0          0         0         0
n300555                         7.607     0.9982          0          0         0         0
n300570                         7.685      1.008          0          0         0         0
n300593                         7.682      1.008          0          0         0         0
n300609                          7.68      1.008          0          0         0         0
n300614                          7.68      1.008          0          0         0         0
n300468                          7.75      1.017          0          0         0         0
n300452                         7.749      1.017          0          0         0         0
n312429                         20.39      1.024    0.08653     0.4244   0.06475    0.3176
n312419                         20.39      1.024    0.08653     0.4244   0.06475    0.3176
n312351                         20.39      1.024    0.08653     0.4244   0.06475    0.3176
n300674                         20.27      1.018          0          0         0         0
n300664                         20.27      1.018          0          0         0         0
n300676                         20.27      1.018          0          0         0         0
n300654                         20.27      1.018          0          0         0         0
n300656                         20.27      1.018          0          0         0         0
n300717                         20.47      1.027          0          0         0         0
n300714                         20.47      1.028          0          0         0         0
n300719                         20.46      1.027          0          0         0         0
n300742                         20.46      1.027          0          0         0         0
n300740                         20.46      1.027          0          0         0         0
n300736                         20.46      1.027          0          0         0         0
n300750                         20.46      1.027          0          0         0         0
n300762                         20.46      1.027          0          0         0         0
n300764                         20.46      1.027          0          0         0         0
n300678                         7.674      1.007          0          0         0         0
n300646                         7.677      1.007          0          0         0         0
n300728                         7.674      1.007          0          0         0         0
n312566                         7.672      1.007          0          0         0         0
n312588                         7.671      1.007          0          0         0         0
n312602                         7.669      1.006          0          0         0         0
n312606                         7.669      1.006          0          0         0         0
n312610                         7.669      1.006          0          0         0         0
n312595                         7.669      1.006          0          0         0         0
n312599                         7.669      1.006          0          0         0         0
n312615                         7.669      1.006          0          0         0         0
n312625                         7.669      1.006          0          0         0         0
n300653                         7.614     0.9991          0          0         0         0
n312551                         7.751      1.017          0          0         0         0
n312510                         7.774       1.02          0          0         0         0
n312584                         7.668      1.006          0          0         0         0
n312568                         7.668      1.006          0          0         0         0
n312509                         7.656      1.005          0          0         0         0
n312558                         7.647      1.003          0          0         0         0
n312581                         7.642      1.003          0          0         0         0
n300711                         20.47      1.028          0          0         0         0
n312366                         7.754      1.017          0          0         0         0
n312345                         7.767      1.019    0.07192     0.9259   0.04483    0.5771
n300518                         7.764      1.019    0.07232     0.9315   0.04643     0.598
n300519                         7.763      1.019    0.07242      0.933   0.04696     0.605
n300522                         7.786      1.022          0          0         0         0
n300524                         7.801      1.024          0          0         0         0
n300529                         7.801      1.024          0          0         0         0
n312436                         7.771       1.02          0          0         0         0
n312340                         7.754      1.017          0          0         0         0
n312290_lo                       7.76      1.018    0.08762      1.129    0.1187     1.529
n312312                         7.759      1.018    0.08801      1.134    0.1187     1.529
n284344                         20.07      1.008          0          0         0         0
n284348                         20.07      1.008          0          0         0         0
n292874                         20.09      1.009          0          0         0         0
n284317                         20.09      1.009          0          0         0         0
n284346                         20.05      1.007          0          0         0         0
n284358                         20.05      1.007          0          0         0         0
n284336                         20.05      1.006          0          0         0         0
n284341                         20.04      1.006          0          0         0         0
n284291                         20.15      1.012          0          0         0         0
n284309                         20.16      1.012          0          0         0         0
n284273                         20.14      1.011          0          0         0         0
n284236                         20.14      1.011          0          0         0         0
n284270                         20.11       1.01          0          0         0         0
n284246                         20.11       1.01          0          0         0         0
n292846                          20.1      1.009          0          0         0         0
n292863                          20.1      1.009          0          0         0         0
n283913                         7.779      1.021          0          0         0         0
n283938                         7.781      1.021          0          0         0         0
n284085                          7.52     0.9867          0          0         0         0
n284034                         7.518     0.9865          0          0         0         0
n284119                         7.523     0.9871          0          0         0         0
n284126                         7.524     0.9873          0          0         0         0
n284117                         7.526     0.9876          0          0         0         0
n292718                         7.529     0.9879          0          0         0         0
n292730                         7.531     0.9882          0          0         0         0
n292715                         7.542     0.9896          0          0         0         0
n292725                         7.539     0.9892          0          0         0         0
n292699                         7.549     0.9905          0          0         0         0
n292703                         7.553     0.9911          0          0         0         0
n284102                         7.562     0.9923          0          0         0         0
n284078                         7.568      0.993          0          0         0         0
n292669                         7.574     0.9939          0          0         0         0
n284041                         7.584     0.9951          0          0         0         0
n283999                           7.6     0.9973          0          0         0         0
n284185                         20.46      1.027          0          0         0         0
n284183                         20.46      1.027          0          0         0         0
n284174                         20.46      1.027          0          0         0         0
n284177                         20.46      1.027          0          0         0         0
n284130                         20.46      1.027          0          0         0         0
n284147                         20.46      1.027          0          0         0         0
n284155                         20.46      1.027          0          0         0         0
n284164                         20.46      1.027          0          0         0         0
n292554                         20.39      1.024    0.08367     0.4103   0.06007    0.2946
n292545                         20.39      1.024    0.08367     0.4103   0.06007    0.2946
n292635                         20.26      1.017          0          0         0         0
n292643                         20.26      1.017          0          0         0         0
n292637                         20.26      1.017          0          0         0         0
n292642                         20.25      1.017          0          0         0         0
n292651                         20.25      1.017          0          0         0         0
n292658                         20.25      1.017          0          0         0         0
n292652                         20.25      1.016          0          0         0         0
n292645                         20.24      1.016          0          0         0         0
n292647                         20.27      1.018          0          0         0         0
n292665                         20.27      1.018          0          0         0         0
n292661                         20.27      1.018          0          0         0         0
n292560                         20.39      1.024    0.08367     0.4103   0.06007    0.2946
n292674                         20.38      1.023    0.08761     0.4298    0.0658    0.3228
n292666                         20.38      1.023    0.08761     0.4298    0.0658    0.3228
n292676                         20.38      1.023    0.08761     0.4298    0.0658    0.3228
n292678                         20.38      1.023    0.08761     0.4299    0.0658    0.3228
n292679                         20.38      1.023    0.08761     0.4299    0.0658    0.3228
n292683                         20.38      1.023    0.08761     0.4299    0.0658    0.3228
n292684                         20.38      1.023    0.08761     0.4299    0.0658    0.3228
n292670                         20.27      1.018          0          0         0         0
n292747                         20.36      1.022     0.0951     0.4672   0.07363    0.3617
n292744                         20.36      1.022     0.0951     0.4671   0.07352    0.3612
n292743                         20.36      1.022    0.09509     0.4671    0.0734    0.3606
n292740                         20.35      1.022    0.09501     0.4668    0.0723    0.3552
n292777                         20.46      1.027          0          0         0         0
n292774                         20.46      1.027          0          0         0         0
n292779                         20.45      1.027          0          0         0         0
n292790                         20.45      1.027          0          0         0         0
n292802                         20.45      1.027          0          0         0         0
n292805                         20.45      1.026          0          0         0         0
n292815                         20.44      1.026          0          0         0         0
n292819                         20.44      1.026          0          0         0         0
n292825                         20.44      1.026          0          0         0         0
n292837                         20.44      1.026          0          0         0         0
n292855                         20.44      1.026          0          0         0         0
n292867                         20.43      1.026          0          0         0         0
n292877                         20.43      1.026          0          0         0         0
n292882                         20.43      1.026          0          0         0         0
n292872                         20.43      1.026          0          0         0         0
n292866                         20.43      1.026          0          0         0         0
n292852                         20.43      1.025          0          0         0         0
n292841                         20.43      1.025          0          0         0         0
n292832                         20.43      1.025          0          0         0         0
n300997                         20.42      1.025          0          0         0         0
n292778                         20.35      1.022          0          0         0         0
n292772                         20.36      1.022          0          0         0         0
n292786                         20.34      1.021          0          0         0         0
n292788                         20.34      1.021          0          0         0         0
n292801                         20.34      1.021          0          0         0         0
n292798                         20.33      1.021          0          0         0         0
n292811                         20.33      1.021          0          0         0         0
n292809                         20.32       1.02          0          0         0         0
n292813                         20.32       1.02          0          0         0         0
n292821                         20.32       1.02          0          0         0         0
n292827                         20.32       1.02          0          0         0         0
n292831                         20.31       1.02          0          0         0         0
n292843                          20.3      1.019          0          0         0         0
n292851                          20.3      1.019          0          0         0         0
n292870                         20.29      1.019          0          0         0         0
n292849                         20.29      1.019          0          0         0         0
n292858                         20.29      1.019          0          0         0         0
n292875                         20.29      1.018          0          0         0         0
n292860                         20.28      1.018          0          0         0         0
n292834                         20.28      1.018          0          0         0         0
n292838                         20.28      1.018          0          0         0         0
n292824                         20.28      1.018          0          0         0         0
n292818                         20.28      1.018          0          0         0         0
n292808                         20.28      1.018          0          0         0         0
n292797                         20.28      1.018          0          0         0         0
n292794                         20.28      1.018          0          0         0         0
n292717                         20.22      1.015          0          0         0         0
n292721                         20.22      1.015          0          0         0         0
n292709                         20.22      1.015          0          0         0         0
n292702                         20.22      1.015          0          0         0         0
n300801                         20.22      1.015          0          0         0         0
n300817                         20.22      1.015          0          0         0         0
n300827                         20.22      1.015          0          0         0         0
n300850                         20.22      1.015          0          0         0         0
n283862                         7.817      1.026          0          0         0         0
n283866                         7.817      1.026          0          0         0         0
n283874                         7.818      1.026          0          0         0         0
n292568                         7.822      1.026          0          0         0         0
n274273                         20.37      1.023          0          0         0         0
n274248                         20.37      1.023          0          0         0         0
n274258                         20.37      1.023          0          0         0         0
n274269                         20.37      1.023          0          0         0         0
n274281                         20.37      1.023          0          0         0         0
n274291                         20.37      1.023          0          0         0         0
n274305                         20.37      1.023          0          0         0         0
n274321                         20.37      1.023          0          0         0         0
n274333                         20.37      1.023          0          0         0         0
n284042                         20.38      1.023          0          0         0         0
n284038                         20.38      1.023          0          0         0         0
n284090                         7.747      1.017          0          0         0         0
n274352                         7.747      1.016          0          0         0         0
n274384                         7.748      1.017          0          0         0         0
n284104                          7.75      1.017          0          0         0         0
n284081                         7.751      1.017          0          0         0         0
n284089                         7.752      1.017          0          0         0         0
n284074                         7.754      1.017          0          0         0         0
n274517                         7.649      1.004          0          0         0         0
n274540                          7.63      1.001          0          0         0         0
n274521                         7.604     0.9977          0          0         0         0
n274531                         7.612     0.9988          0          0         0         0
n284284                         7.624          1          0          0         0         0
n274539                         7.595     0.9966          0          0         0         0
n274534                         7.588     0.9956          0          0         0         0
n284200                         7.719      1.013          0          0         0         0
n284181                         7.721      1.013          0          0         0         0
n284208                         7.718      1.013          0          0         0         0
n284225                         7.716      1.013          0          0         0         0
n284250                         7.715      1.012          0          0         0         0
n284255                         7.715      1.012          0          0         0         0
n284220                         7.702      1.011          0          0         0         0
n284204                         7.706      1.011          0          0         0         0
n284232                         7.701       1.01          0          0         0         0
n284245                         7.699       1.01          0          0         0         0
n284247                         7.699       1.01          0          0         0         0
n284278                         7.699       1.01          0          0         0         0
n284251                         7.699       1.01          0          0         0         0
n284189                         20.45      1.027          0          0         0         0
n284172                         20.46      1.027          0          0         0         0
n284195                         20.45      1.026          0          0         0         0
n284214                         20.44      1.026          0          0         0         0
n284228                         20.43      1.026          0          0         0         0
n284192                         20.41      1.025          0          0         0         0
n284203                         20.42      1.025          0          0         0         0
n284168                          20.4      1.024          0          0         0         0
n284139                          20.4      1.024          0          0         0         0
n284240                         7.702      1.011          0          0         0         0
n284221                         7.702      1.011          0          0         0         0
n283642                          20.6      1.034          0          0         0         0
n283675                          20.6      1.034          0          0         0         0
n283710                          20.6      1.034          0          0         0         0
n283684                         20.59      1.034          0          0         0         0
n283716                         20.59      1.034          0          0         0         0
n283731                         20.59      1.034          0          0         0         0
n283747                         20.59      1.034          0          0         0         0
n283772                         20.59      1.034          0          0         0         0
n283702                         20.64      1.036          0          0         0         0
n283679                         20.64      1.036          0          0         0         0
n283722                         20.64      1.036          0          0         0         0
n274103                         20.64      1.036          0          0         0         0
n283753                         20.64      1.036          0          0         0         0
n283699                         20.64      1.036          0          0         0         0
n283659                         20.64      1.036          0          0         0         0
n274122                         20.56      1.032          0          0         0         0
n274137                         20.56      1.032          0          0         0         0
n274150                         20.56      1.032          0          0         0         0
n283789                         20.56      1.032          0          0         0         0
n283806                         20.56      1.032          0          0         0         0
n283810                         20.56      1.032          0          0         0         0
n283638                         20.59      1.034          0          0         0         0
n283608                         20.59      1.034          0          0         0         0
n300544                         7.691      1.009          0          0         0         0
...
n284146_lo                      7.725      1.014          0          0         0         0
n284148                         7.725      1.014          0          0         0         0
n284160                         7.725      1.014          0          0         0         0
n284151                         7.717      1.013          0          0         0         0
n284159                         7.717      1.013          0          0         0         0
n284143                         20.37      1.023          0          0         0         0
n284146                         20.37      1.023          0          0         0         0
n284149_lo                      7.717      1.013          0          0         0         0
n1311915                        20.45      1.027          0          0         0         0
n292231                         20.49      1.029          0          0         0         0
n292225                         20.55      1.032          0          0         0         0
n292218                         20.49      1.029    0.04533     0.2213   0.02848     0.139
n292228                         20.49      1.028    0.04533     0.2213   0.02848     0.139
n292222                         20.49      1.029    0.04533     0.2213   0.02848     0.139
n292223                         20.49      1.029    0.04533     0.2213   0.02848     0.139
n284145                         20.37      1.023          0          0         0         0
n284149                         20.37      1.023          0          0         0         0
n284138                         20.37      1.023    0.07606     0.3733   0.03825    0.1878
n284142                         20.37      1.023          0          0         0         0
n283537                         7.853       1.03          0          0         0         0
n283532                         7.762      1.019          0          0         0         0
n283564                         7.762      1.019          0          0         0         0
n312601                         7.669      1.006          0          0         0         0
n312605                         7.669      1.006          0          0         0         0
n312506                         7.774       1.02          0          0         0         0
n300644                         7.615     0.9992          0          0         0         0
n284351                         20.04      1.006          0          0         0         0
n284227                         20.13       1.01          0          0         0         0
n292737                         7.536     0.9888          0          0         0         0
...