ckt24/ckt24_VLN_Node.Txt

LINE-GROUND and LINE-LINE VOLTAGES BY BUS & NODE

Bus                         Node    VLN (kV)   Angle      pu     Base kV    Node-Node   VLL (kV)  Angle      pu

SOURCEBUS ................. 1   1.327E-008 /_    0.0 1.105E-007     0.208        1-2 2.2985E-008 /_   30.0 1.105E-007
   -                        2   1.327E-008 /_ -120.0 1.105E-007     0.208        2-3 2.2986E-008 /_  -90.0 1.1051E-007
   -                        3   1.3271E-008 /_  120.0 1.1051E-007     0.208        3-1 2.2986E-008 /_  150.0 1.1051E-007
SUBXFMR_LSB ............... 1   1.9661E-009 /_  -29.7 1.6372E-008     0.208        1-2 3.4048E-009 /_    0.2 1.6369E-008
   -                        2   1.9651E-009 /_ -149.8 1.6364E-008     0.208        2-3 3.4044E-009 /_ -119.7 1.6367E-008
   -                        3   1.9675E-009 /_   90.3 1.6384E-008     0.208        3-1 3.4076E-009 /_  120.3 1.6383E-008
05410 ..................... 1   1.9661E-009 /_  -29.7 1.6372E-008     0.208        1-2 3.4048E-009 /_    0.2 1.6369E-008
   -                        2   1.9651E-009 /_ -149.8 1.6364E-008     0.208        2-3 3.4044E-009 /_ -119.7 1.6367E-008
   -                        3   1.9675E-009 /_   90.3 1.6384E-008     0.208        3-1 3.4076E-009 /_  120.3 1.6383E-008
N284067 ................... 1   1.9316E-009 /_  -31.8 1.6085E-008     0.208
N284069 ................... 1   1.9316E-009 /_  -31.8 1.6085E-008     0.208
N292548 ................... 1   1.9324E-009 /_  -31.6 1.6091E-008     0.208        1-2 3.3504E-009 /_   -1.4 1.6108E-008
   -                        2   1.9426E-009 /_ -151.3 1.6177E-008     0.208        2-3 3.3705E-009 /_ -121.3 1.6204E-008
   -                        3   1.9489E-009 /_   88.7 1.6228E-008     0.208        3-1 3.3663E-009 /_  118.4 1.6184E-008
N292535 ................... 1   1.9323E-009 /_  -31.6 1.6091E-008     0.208        1-2 3.3504E-009 /_   -1.4 1.6108E-008
   -                        2   1.9426E-009 /_ -151.3 1.6176E-008     0.208        2-3 3.3704E-009 /_ -121.3 1.6204E-008
   -                        3   1.9488E-009 /_   88.7 1.6228E-008     0.208        3-1 3.3662E-009 /_  118.4 1.6184E-008
N284033_LO ................ 3   7.3513E-010 /_   87.3 6.1215E-009     0.208
N284031 ................... 3   7.3511E-010 /_   87.3 6.1214E-009     0.208
N284158 ................... 1   1.9315E-009 /_  -31.7 1.6084E-008     0.208        1-2 3.3472E-009 /_   -1.6 1.6092E-008
   -                        2   1.9383E-009 /_ -151.5 1.6141E-008     0.208        2-3 3.3662E-009 /_ -121.5 1.6183E-008
   -                        3   1.947E-009 /_   88.4 1.6213E-008     0.208        3-1 3.3617E-009 /_  118.2 1.6162E-008
N284141 ................... 1   1.9315E-009 /_  -31.7 1.6084E-008     0.208        1-2 3.3472E-009 /_   -1.6 1.6093E-008
   -                        2   1.9384E-009 /_ -151.5 1.6141E-008     0.208        2-3 3.3662E-009 /_ -121.5 1.6184E-008
   -                        3   1.947E-009 /_   88.4 1.6213E-008     0.208        3-1 3.3617E-009 /_  118.2 1.6162E-008
N1381582 .................. 1   1.9113E-009 /_  -31.9 1.5915E-008     0.208
N1413717 .................. 1   1.9113E-009 /_  -31.9 1.5916E-008     0.208
N284453 ................... 1   1.9101E-009 /_  -32.0 1.5906E-008     0.208
N284454 ................... 1   1.9101E-009 /_  -32.0 1.5906E-008     0.208
N292280 ................... 1   1.9409E-009 /_  -31.1 1.6162E-008     0.208        1-2 3.3642E-009 /_   -1.0 1.6174E-008
   -                        2   1.9459E-009 /_ -150.9 1.6203E-008     0.208        2-3 3.3766E-009 /_ -120.9 1.6234E-008
   -                        3   1.9534E-009 /_   89.1 1.6266E-008     0.208        3-1 3.3747E-009 /_  118.9 1.6224E-008
N292283 ................... 1   1.9409E-009 /_  -31.1 1.6162E-008     0.208        1-2 3.3642E-009 /_   -1.0 1.6174E-008
   -                        2   1.9459E-009 /_ -150.9 1.6203E-008     0.208        2-3 3.3766E-009 /_ -120.9 1.6234E-008
   -                        3   1.9534E-009 /_   89.1 1.6266E-008     0.208        3-1 3.3747E-009 /_  118.9 1.6224E-008
N284404 ................... 1   1.9101E-009 /_  -32.0 1.5906E-008     0.208
N284426 ................... 1   1.9101E-009 /_  -32.0 1.5906E-008     0.208
N292979 ................... 1   1.9101E-009 /_  -32.0 1.5906E-008     0.208
N284382 ................... 1   1.9102E-009 /_  -32.0 1.5906E-008     0.208
N284387 ................... 1    1.91E-009 /_  -32.0 1.5905E-008     0.208
N284397 ................... 1   1.9079E-009 /_  -32.0 1.5887E-008     0.208
N284394 ................... 1   1.9079E-009 /_  -32.0 1.5887E-008     0.208
N284433 ................... 1   1.9079E-009 /_  -32.0 1.5887E-008     0.208
N284414 ................... 1   1.908E-009 /_  -32.0 1.5888E-008     0.208
N284367 ................... 1   1.9097E-009 /_  -32.0 1.5902E-008     0.208
N284372 ................... 1   1.9081E-009 /_  -32.0 1.5889E-008     0.208
N284383 ................... 1   1.9082E-009 /_  -32.0 1.589E-008     0.208
N312486 ................... 1   7.3814E-010 /_  -31.9 6.1466E-009     0.208        1-2 1.2828E-009 /_   -3.1 6.1673E-009
   -                        2   7.2882E-010 /_ -153.9 6.069E-009     0.208
N312424 ................... 1   7.3821E-010 /_  -31.9 6.1472E-009     0.208        1-2 1.2838E-009 /_   -3.1 6.1719E-009
   -                        2   7.2991E-010 /_ -153.8 6.0781E-009     0.208
N312492 ................... 2   7.2518E-010 /_ -153.9 6.0387E-009     0.208
N312536 ................... 2   7.2554E-010 /_ -153.9 6.0417E-009     0.208
N300533 ................... 3   7.392E-010 /_   87.6 6.1555E-009     0.208
N312395 ................... 3   7.3924E-010 /_   87.6 6.1558E-009     0.208
N300557 ................... 3   7.4025E-010 /_   87.6 6.1642E-009     0.208
N300550 ................... 3   7.4039E-010 /_   87.6 6.1654E-009     0.208
N300576 ................... 3   7.3997E-010 /_   87.6 6.1619E-009     0.208
N300591 ................... 3   7.3983E-010 /_   87.6 6.1607E-009     0.208
N312512 ................... 3   7.3962E-010 /_   87.6 6.159E-009     0.208
N300612 ................... 2   7.2433E-010 /_ -153.9 6.0316E-009     0.208
N300587 ................... 2   7.2413E-010 /_ -153.9 6.0299E-009     0.208
N300566 ................... 2   7.2399E-010 /_ -153.9 6.0288E-009     0.208
N300555 ................... 2   7.2396E-010 /_ -153.9 6.0285E-009     0.208
N300570 ................... 1   7.3177E-010 /_  -32.9 6.0936E-009     0.208
N300593 ................... 1   7.3142E-010 /_  -32.9 6.0907E-009     0.208
N300609 ................... 1   7.3128E-010 /_  -32.9 6.0895E-009     0.208
N300614 ................... 1   7.3122E-010 /_  -32.9 6.089E-009     0.208
N300468 ................... 2   7.374E-010 /_ -152.4 6.1405E-009     0.208
N300452 ................... 2   7.3738E-010 /_ -152.4 6.1403E-009     0.208
N312429 ................... 1   1.9305E-009 /_  -31.8 1.6075E-008     0.208        1-2 3.3477E-009 /_   -1.5 1.6095E-008
   -                        2   1.9419E-009 /_ -151.4 1.617E-008     0.208        2-3 3.3691E-009 /_ -121.4 1.6198E-008
   -                        3   1.9485E-009 /_   88.6 1.6226E-008     0.208        3-1 3.3652E-009 /_  118.2 1.6179E-008
N312419 ................... 1   1.9304E-009 /_  -31.8 1.6075E-008     0.208        1-2 3.3477E-009 /_   -1.5 1.6095E-008
   -                        2   1.9419E-009 /_ -151.4 1.617E-008     0.208        2-3 3.3691E-009 /_ -121.4 1.6198E-008
   -                        3   1.9485E-009 /_   88.6 1.6226E-008     0.208        3-1 3.3651E-009 /_  118.2 1.6179E-008
N312351 ................... 1   1.9306E-009 /_  -31.8 1.6076E-008     0.208        1-2 3.3479E-009 /_   -1.5 1.6096E-008
   -                        2   1.942E-009 /_ -151.4 1.6171E-008     0.208        2-3 3.3693E-009 /_ -121.4 1.6199E-008
   -                        3   1.9486E-009 /_   88.6 1.6227E-008     0.208        3-1 3.3653E-009 /_  118.2 1.6179E-008
N300674 ................... 1   1.9303E-009 /_  -31.8 1.6074E-008     0.208
N300664 ................... 1   1.9303E-009 /_  -31.8 1.6074E-008     0.208
N300676 ................... 1   1.9302E-009 /_  -31.8 1.6073E-008     0.208
N300654 ................... 1   1.9304E-009 /_  -31.8 1.6075E-008     0.208
   -                        3   1.9476E-009 /_   88.6 1.6218E-008     0.208        3-1 3.3643E-009 /_  118.3 1.6175E-008
N300656 ................... 1   1.9304E-009 /_  -31.8 1.6075E-008     0.208
   -                        3   1.9476E-009 /_   88.6 1.6218E-008     0.208        3-1 3.3643E-009 /_  118.3 1.6174E-008
N300717 ................... 3   1.9471E-009 /_   88.6 1.6214E-008     0.208
N300714 ................... 3   1.9472E-009 /_   88.6 1.6214E-008     0.208
N300719 ................... 3   1.947E-009 /_   88.6 1.6213E-008     0.208
N300742 ................... 3   1.9466E-009 /_   88.6 1.621E-008     0.208
N300740 ................... 3   1.9465E-009 /_   88.6 1.6209E-008     0.208
N300736 ................... 3   1.9465E-009 /_   88.6 1.6209E-008     0.208
N300750 ................... 3   1.9464E-009 /_   88.6 1.6208E-008     0.208
N300762 ................... 3   1.9463E-009 /_   88.6 1.6207E-008     0.208
N300764 ................... 3   1.9463E-009 /_   88.6 1.6207E-008     0.208
N300678 ................... 1   7.307E-010 /_  -32.9 6.0847E-009     0.208
N300646 ................... 1   7.3096E-010 /_  -32.9 6.0869E-009     0.208
N300728 ................... 1   7.307E-010 /_  -32.9 6.0847E-009     0.208
N312566 ................... 1   7.305E-010 /_  -32.9 6.083E-009     0.208
N312588 ................... 1   7.3038E-010 /_  -32.9 6.082E-009     0.208
N312602 ................... 1   7.3024E-010 /_  -32.9 6.0808E-009     0.208
N312606 ................... 1   7.3024E-010 /_  -32.9 6.0808E-009     0.208
N312610 ................... 1   7.3024E-010 /_  -32.9 6.0808E-009     0.208
N312595 ................... 1   7.3017E-010 /_  -32.9 6.0802E-009     0.208        1-2 1.2673E-009 /_   -3.5 6.0928E-009
   -                        2   7.2631E-010 /_ -153.9 6.0481E-009     0.208
N312599 ................... 1   7.3019E-010 /_  -32.9 6.0804E-009     0.208        1-2 1.2673E-009 /_   -3.5 6.0928E-009
   -                        2   7.2628E-010 /_ -153.9 6.0479E-009     0.208
N312615 ................... 1   7.3019E-010 /_  -32.9 6.0804E-009     0.208        1-2 1.2673E-009 /_   -3.5 6.0927E-009
   -                        2   7.2624E-010 /_ -153.9 6.0475E-009     0.208
N312625 ................... 1   7.3019E-010 /_  -32.9 6.0804E-009     0.208        1-2 1.2673E-009 /_   -3.5 6.0926E-009
   -                        2   7.2623E-010 /_ -153.9 6.0474E-009     0.208
N300653 ................... 2   7.2463E-010 /_ -153.9 6.0342E-009     0.208
N312551 ................... 1   7.3798E-010 /_  -31.9 6.1453E-009     0.208
N312510 ................... 3   7.3961E-010 /_   87.6 6.1589E-009     0.208
N312584 ................... 1   7.3016E-010 /_  -32.9 6.0802E-009     0.208
N312568 ................... 1   7.3014E-010 /_  -32.9 6.08E-009     0.208
N312509 ................... 2   7.285E-010 /_ -153.9 6.0663E-009     0.208
N312558 ................... 2   7.2767E-010 /_ -153.9 6.0594E-009     0.208
N312581 ................... 2   7.2717E-010 /_ -153.9 6.0553E-009     0.208
N300711 ................... 3   1.9473E-009 /_   88.6 1.6215E-008     0.208
N312366 ................... 1   7.3828E-010 /_  -31.9 6.1478E-009     0.208        1-2 1.285E-009 /_   -3.0 6.1778E-009
   -                        2   7.3133E-010 /_ -153.8 6.0899E-009     0.208
N312345 ................... 1   7.3401E-010 /_  -32.9 6.1123E-009     0.208        1-2 1.2702E-009 /_   -2.1 6.1069E-009
   -                        2   7.4234E-010 /_ -151.6 6.1816E-009     0.208        2-3 1.2902E-009 /_ -122.0 6.2027E-009
   -                        3   7.4133E-010 /_   87.6 6.1732E-009     0.208        3-1 1.2807E-009 /_  117.2 6.157E-009
N300518 ................... 1   7.3345E-010 /_  -32.9 6.1075E-009     0.208        1-2 1.2697E-009 /_   -2.1 6.1043E-009
   -                        2   7.4235E-010 /_ -151.6 6.1816E-009     0.208        2-3 1.2898E-009 /_ -122.1 6.2008E-009
   -                        3   7.4091E-010 /_   87.6 6.1697E-009     0.208        3-1 1.2799E-009 /_  117.2 6.1533E-009
N300519 ................... 1   7.3327E-010 /_  -32.9 6.1061E-009     0.208        1-2 1.2695E-009 /_   -2.1 6.1036E-009
   -                        2   7.4235E-010 /_ -151.6 6.1817E-009     0.208        2-3 1.2896E-009 /_ -122.1 6.2002E-009
   -                        3   7.4078E-010 /_   87.6 6.1686E-009     0.208        3-1 1.2796E-009 /_  117.2 6.1521E-009
N300522 ................... 3   7.4074E-010 /_   87.6 6.1682E-009     0.208
N300524 ................... 1   7.3292E-010 /_  -32.9 6.1032E-009     0.208        1-2 1.2692E-009 /_   -2.0 6.1018E-009
   -                        2   7.4229E-010 /_ -151.6 6.1812E-009     0.208
N300529 ................... 2   7.4228E-010 /_ -151.6 6.1811E-009     0.208
N312436 ................... 3   7.3933E-010 /_   87.6 6.1565E-009     0.208
N312340 ................... 1   7.3832E-010 /_  -31.9 6.1481E-009     0.208        1-2 1.2856E-009 /_   -3.0 6.1809E-009
   -                        2   7.3208E-010 /_ -153.8 6.0962E-009     0.208
N312290_LO ................ 1   7.3827E-010 /_  -31.9 6.1477E-009     0.208        1-2 1.286E-009 /_   -3.0 6.1827E-009
   -                        2   7.326E-010 /_ -153.8 6.1005E-009     0.208        2-3 1.2648E-009 /_ -122.4 6.0809E-009
   -                        3   7.4503E-010 /_   88.4 6.204E-009     0.208        3-1 1.2868E-009 /_  118.1 6.1863E-009
N312312 ................... 1   7.383E-010 /_  -31.9 6.148E-009     0.208        1-2 1.2859E-009 /_   -3.0 6.182E-009
   -                        2   7.324E-010 /_ -153.8 6.0988E-009     0.208        2-3 1.2647E-009 /_ -122.4 6.0801E-009
   -                        3   7.4501E-010 /_   88.4 6.2039E-009     0.208        3-1 1.2867E-009 /_  118.1 6.1863E-009
N284344 ................... 1   1.9112E-009 /_  -31.9 1.5915E-008     0.208
N284348 ................... 1   1.9112E-009 /_  -31.9 1.5915E-008     0.208
N292874 ................... 1   1.9133E-009 /_  -31.9 1.5933E-008     0.208
N284317 ................... 1   1.9129E-009 /_  -31.9 1.5929E-008     0.208
N284346 ................... 1   1.909E-009 /_  -32.0 1.5897E-008     0.208
N284358 ................... 1   1.9093E-009 /_  -32.0 1.5899E-008     0.208
N284336 ................... 1   1.9088E-009 /_  -32.0 1.5895E-008     0.208
N284341 ................... 1   1.9086E-009 /_  -32.0 1.5893E-008     0.208
N284291 ................... 1   1.9188E-009 /_  -31.8 1.5978E-008     0.208
N284309 ................... 1   1.9196E-009 /_  -31.8 1.5985E-008     0.208
N284273 ................... 1   1.918E-009 /_  -31.8 1.5971E-008     0.208
N284236 ................... 1   1.9173E-009 /_  -31.9 1.5965E-008     0.208
N284270 ................... 1   1.9148E-009 /_  -31.9 1.5945E-008     0.208
N284246 ................... 1   1.9152E-009 /_  -31.9 1.5948E-008     0.208
N292846 ................... 1   1.9141E-009 /_  -31.9 1.5939E-008     0.208
N292863 ................... 1   1.9136E-009 /_  -31.9 1.5935E-008     0.208
N283913 ................... 3   7.4008E-010 /_   88.0 6.1628E-009     0.208
N283938 ................... 3   7.4025E-010 /_   88.0 6.1642E-009     0.208
N284085 ................... 2   7.1586E-010 /_ -154.4 5.9611E-009     0.208
N284034 ................... 2   7.1573E-010 /_ -154.4 5.96E-009     0.208
N284119 ................... 2   7.1611E-010 /_ -154.4 5.9631E-009     0.208
N284126 ................... 2   7.1628E-010 /_ -154.4 5.9646E-009     0.208
N284117 ................... 2   7.1645E-010 /_ -154.4 5.966E-009     0.208
N292718 ................... 2   7.1668E-010 /_ -154.4 5.968E-009     0.208
N292730 ................... 2   7.169E-010 /_ -154.3 5.9698E-009     0.208
N292715 ................... 2   7.1787E-010 /_ -154.3 5.9778E-009     0.208
N292725 ................... 2   7.1759E-010 /_ -154.3 5.9755E-009     0.208
N292699 ................... 2   7.1853E-010 /_ -154.3 5.9833E-009     0.208
N292703 ................... 2   7.1896E-010 /_ -154.3 5.9869E-009     0.208
N284102 ................... 2   7.198E-010 /_ -154.3 5.9939E-009     0.208
N284078 ................... 2   7.2029E-010 /_ -154.3 5.998E-009     0.208
N292669 ................... 2   7.2092E-010 /_ -154.3 6.0032E-009     0.208
N284041 ................... 2   7.2179E-010 /_ -154.3 6.0104E-009     0.208
N283999 ................... 2   7.2333E-010 /_ -154.3 6.0232E-009     0.208
N284185 ................... 3   1.9464E-009 /_   88.5 1.6208E-008     0.208
N284183 ................... 3   1.9464E-009 /_   88.5 1.6208E-008     0.208
N284174 ................... 3   1.9464E-009 /_   88.5 1.6208E-008     0.208
N284177 ................... 3   1.9464E-009 /_   88.5 1.6208E-008     0.208
N284130 ................... 3   1.9465E-009 /_   88.5 1.6209E-008     0.208
N284147 ................... 3   1.9466E-009 /_   88.5 1.6209E-008     0.208
N284155 ................... 3   1.9467E-009 /_   88.5 1.621E-008     0.208
N284164 ................... 3   1.9467E-009 /_   88.5 1.621E-008     0.208
N292554 ................... 1   1.9314E-009 /_  -31.7 1.6083E-008     0.208        1-2 3.3489E-009 /_   -1.4 1.6101E-008
   -                        2   1.9422E-009 /_ -151.4 1.6173E-008     0.208        2-3 3.3697E-009 /_ -121.3 1.62E-008
   -                        3   1.9485E-009 /_   88.6 1.6225E-008     0.208        3-1 3.3655E-009 /_  118.3 1.618E-008
N292545 ................... 1   1.9313E-009 /_  -31.7 1.6082E-008     0.208        1-2 3.3488E-009 /_   -1.4 1.61E-008
   -                        2   1.9422E-009 /_ -151.4 1.6173E-008     0.208        2-3 3.3696E-009 /_ -121.3 1.62E-008
   -                        3   1.9484E-009 /_   88.6 1.6225E-008     0.208        3-1 3.3654E-009 /_  118.3 1.618E-008
N292635 ................... 1   1.929E-009 /_  -31.8 1.6064E-008     0.208
N292643 ................... 1   1.9289E-009 /_  -31.8 1.6062E-008     0.208
N292637 ................... 1   1.9287E-009 /_  -31.8 1.606E-008     0.208
N292642 ................... 1   1.9285E-009 /_  -31.8 1.6059E-008     0.208
N292651 ................... 1   1.9283E-009 /_  -31.8 1.6057E-008     0.208
N292658 ................... 1   1.9279E-009 /_  -31.8 1.6054E-008     0.208
N292652 ................... 1   1.9277E-009 /_  -31.8 1.6052E-008     0.208
N292645 ................... 1   1.9273E-009 /_  -31.8 1.6049E-008     0.208
N292647 ................... 1   1.9305E-009 /_  -31.7 1.6075E-008     0.208
N292665 ................... 1   1.9304E-009 /_  -31.7 1.6075E-008     0.208
N292661 ................... 1   1.9304E-009 /_  -31.7 1.6075E-008     0.208
N292560 ................... 1   1.9314E-009 /_  -31.7 1.6083E-008     0.208        1-2 3.349E-009 /_   -1.4 1.6101E-008
   -                        2   1.9422E-009 /_ -151.4 1.6173E-008     0.208        2-3 3.3697E-009 /_ -121.3 1.6201E-008
   -                        3   1.9485E-009 /_   88.6 1.6225E-008     0.208        3-1 3.3655E-009 /_  118.3 1.618E-008
N292674 ................... 1   1.9298E-009 /_  -31.8 1.607E-008     0.208        1-2 3.3468E-009 /_   -1.5 1.609E-008
   -                        2   1.9415E-009 /_ -151.4 1.6168E-008     0.208        2-3 3.3685E-009 /_ -121.4 1.6195E-008
   -                        3   1.9481E-009 /_   88.6 1.6222E-008     0.208        3-1 3.3644E-009 /_  118.3 1.6175E-008
N292666 ................... 1   1.9298E-009 /_  -31.8 1.607E-008     0.208        1-2 3.3467E-009 /_   -1.5 1.609E-008
   -                        2   1.9415E-009 /_ -151.4 1.6167E-008     0.208        2-3 3.3684E-009 /_ -121.4 1.6194E-008
   -                        3   1.9481E-009 /_   88.6 1.6222E-008     0.208        3-1 3.3643E-009 /_  118.3 1.6175E-008
N292676 ................... 1   1.9298E-009 /_  -31.8 1.607E-008     0.208        1-2 3.3467E-009 /_   -1.5 1.609E-008
   -                        2   1.9415E-009 /_ -151.4 1.6167E-008     0.208        2-3 3.3684E-009 /_ -121.4 1.6194E-008
   -                        3   1.9481E-009 /_   88.6 1.6222E-008     0.208        3-1 3.3643E-009 /_  118.2 1.6174E-008
N292678 ................... 1   1.9297E-009 /_  -31.8 1.6069E-008     0.208        1-2 3.3466E-009 /_   -1.5 1.6089E-008
   -                        2   1.9414E-009 /_ -151.4 1.6167E-008     0.208        2-3 3.3683E-009 /_ -121.4 1.6194E-008
   -                        3   1.948E-009 /_   88.6 1.6221E-008     0.208        3-1 3.3642E-009 /_  118.2 1.6174E-008
N292679 ................... 1   1.9297E-009 /_  -31.8 1.6069E-008     0.208        1-2 3.3466E-009 /_   -1.5 1.6089E-008
   -                        2   1.9414E-009 /_ -151.4 1.6166E-008     0.208        2-3 3.3682E-009 /_ -121.4 1.6193E-008
   -                        3   1.948E-009 /_   88.6 1.6221E-008     0.208        3-1 3.3641E-009 /_  118.2 1.6174E-008
N292683 ................... 1   1.9297E-009 /_  -31.8 1.6069E-008     0.208        1-2 3.3466E-009 /_   -1.5 1.6089E-008
   -                        2   1.9414E-009 /_ -151.4 1.6166E-008     0.208        2-3 3.3682E-009 /_ -121.4 1.6193E-008
   -                        3   1.948E-009 /_   88.6 1.6221E-008     0.208        3-1 3.3641E-009 /_  118.2 1.6174E-008
N292684 ................... 1   1.9297E-009 /_  -31.8 1.6069E-008     0.208        1-2 3.3466E-009 /_   -1.5 1.6089E-008
   -                        2   1.9414E-009 /_ -151.4 1.6166E-008     0.208        2-3 3.3682E-009 /_ -121.4 1.6193E-008
   -                        3   1.948E-009 /_   88.6 1.6221E-008     0.208        3-1 3.3641E-009 /_  118.2 1.6174E-008
N292670 ................... 1   1.9298E-009 /_  -31.8 1.607E-008     0.208
N292747 ................... 1   1.9259E-009 /_  -31.8 1.6037E-008     0.208        1-2 3.3414E-009 /_   -1.5 1.6064E-008
   -                        2   1.9389E-009 /_ -151.5 1.6146E-008     0.208        2-3 3.3651E-009 /_ -121.4 1.6179E-008
   -                        3   1.9473E-009 /_   88.6 1.6216E-008     0.208        3-1 3.3604E-009 /_  118.2 1.6156E-008
N292744 ................... 1   1.9259E-009 /_  -31.8 1.6037E-008     0.208        1-2 3.3413E-009 /_   -1.5 1.6064E-008
   -                        2   1.9389E-009 /_ -151.5 1.6145E-008     0.208        2-3 3.3651E-009 /_ -121.4 1.6178E-008
   -                        3   1.9473E-009 /_   88.6 1.6216E-008     0.208        3-1 3.3604E-009 /_  118.2 1.6156E-008
N292743 ................... 1   1.9258E-009 /_  -31.8 1.6037E-008     0.208        1-2 3.3413E-009 /_   -1.5 1.6064E-008
   -                        2   1.9388E-009 /_ -151.5 1.6145E-008     0.208        2-3 3.365E-009 /_ -121.4 1.6178E-008
   -                        3   1.9473E-009 /_   88.6 1.6215E-008     0.208        3-1 3.3603E-009 /_  118.2 1.6155E-008
N292740 ................... 1   1.9258E-009 /_  -31.8 1.6036E-008     0.208        1-2 3.3409E-009 /_   -1.5 1.6062E-008
   -                        2   1.9384E-009 /_ -151.5 1.6142E-008     0.208        2-3 3.3646E-009 /_ -121.4 1.6176E-008
   -                        3   1.9471E-009 /_   88.6 1.6214E-008     0.208        3-1 3.3601E-009 /_  118.2 1.6154E-008
N292777 ................... 3   1.9465E-009 /_   88.6 1.6209E-008     0.208
N292774 ................... 3   1.9462E-009 /_   88.5 1.6207E-008     0.208
N292779 ................... 3   1.946E-009 /_   88.5 1.6204E-008     0.208
N292790 ................... 3   1.9457E-009 /_   88.5 1.6202E-008     0.208
N292802 ................... 3   1.9455E-009 /_   88.5 1.6201E-008     0.208
N292805 ................... 3   1.9452E-009 /_   88.5 1.6198E-008     0.208
N292815 ................... 3   1.9449E-009 /_   88.5 1.6195E-008     0.208
N292819 ................... 3   1.9447E-009 /_   88.5 1.6194E-008     0.208
N292825 ................... 3   1.9444E-009 /_   88.5 1.6192E-008     0.208
N292837 ................... 3   1.9443E-009 /_   88.5 1.6191E-008     0.208
N292855 ................... 3   1.9441E-009 /_   88.5 1.6189E-008     0.208
N292867 ................... 3   1.944E-009 /_   88.5 1.6188E-008     0.208
N292877 ................... 3   1.9439E-009 /_   88.5 1.6187E-008     0.208
N292882 ................... 3   1.9438E-009 /_   88.5 1.6187E-008     0.208
N292872 ................... 3   1.9437E-009 /_   88.5 1.6186E-008     0.208
N292866 ................... 3   1.9437E-009 /_   88.5 1.6185E-008     0.208
N292852 ................... 3   1.9433E-009 /_   88.5 1.6182E-008     0.208
N292841 ................... 3   1.9433E-009 /_   88.5 1.6182E-008     0.208
N292832 ................... 3   1.9432E-009 /_   88.5 1.6181E-008     0.208
N300997 ................... 3   1.9431E-009 /_   88.5 1.6181E-008     0.208
N292778 ................... 2   1.9362E-009 /_ -151.5 1.6123E-008     0.208
N292772 ................... 2   1.9371E-009 /_ -151.5 1.6131E-008     0.208
N292786 ................... 2   1.9357E-009 /_ -151.5 1.6119E-008     0.208
N292788 ................... 2   1.9355E-009 /_ -151.5 1.6117E-008     0.208
N292801 ................... 2   1.935E-009 /_ -151.5 1.6113E-008     0.208
N292798 ................... 2   1.9346E-009 /_ -151.5 1.611E-008     0.208
N292811 ................... 2   1.9341E-009 /_ -151.5 1.6106E-008     0.208
N292809 ................... 2   1.9336E-009 /_ -151.5 1.6102E-008     0.208
N292813 ................... 2   1.9335E-009 /_ -151.5 1.6101E-008     0.208
N292821 ................... 2   1.9332E-009 /_ -151.5 1.6098E-008     0.208
N292827 ................... 2   1.933E-009 /_ -151.5 1.6096E-008     0.208
N292831 ................... 2   1.9322E-009 /_ -151.5 1.609E-008     0.208
N292843 ................... 2   1.9317E-009 /_ -151.5 1.6085E-008     0.208
N292851 ................... 2   1.9314E-009 /_ -151.5 1.6083E-008     0.208
N292870 ................... 2   1.9309E-009 /_ -151.5 1.6079E-008     0.208
N292849 ................... 2   1.9307E-009 /_ -151.5 1.6077E-008     0.208
N292858 ................... 2   1.9305E-009 /_ -151.5 1.6075E-008     0.208
N292875 ................... 2   1.9302E-009 /_ -151.5 1.6073E-008     0.208
N292860 ................... 2    1.93E-009 /_ -151.5 1.6071E-008     0.208
N292834 ................... 2   1.9296E-009 /_ -151.5 1.6068E-008     0.208
N292838 ................... 2   1.9296E-009 /_ -151.5 1.6068E-008     0.208
N292824 ................... 2   1.9295E-009 /_ -151.5 1.6067E-008     0.208
N292818 ................... 2   1.9295E-009 /_ -151.5 1.6067E-008     0.208
N292808 ................... 2   1.9294E-009 /_ -151.5 1.6066E-008     0.208
N292797 ................... 2   1.9293E-009 /_ -151.5 1.6066E-008     0.208
N292794 ................... 2   1.9293E-009 /_ -151.5 1.6065E-008     0.208
N292717 ................... 1   1.9254E-009 /_  -31.8 1.6033E-008     0.208
N292721 ................... 1   1.9255E-009 /_  -31.8 1.6034E-008     0.208
N292709 ................... 1   1.9253E-009 /_  -31.8 1.6032E-008     0.208
N292702 ................... 1   1.9252E-009 /_  -31.8 1.6031E-008     0.208
N300801 ................... 1   1.925E-009 /_  -31.8 1.603E-008     0.208
N300817 ................... 1   1.925E-009 /_  -31.8 1.603E-008     0.208
N300827 ................... 1   1.9249E-009 /_  -31.8 1.6029E-008     0.208
N300850 ................... 1   1.9249E-009 /_  -31.8 1.6029E-008     0.208
N283862 ................... 3   7.4372E-010 /_   88.4 6.1931E-009     0.208
N283866 ................... 3   7.4374E-010 /_   88.4 6.1933E-009     0.208
N283874 ................... 3   7.438E-010 /_   88.4 6.1938E-009     0.208
N292568 ................... 3   7.4424E-010 /_   88.4 6.1974E-009     0.208
N274273 ................... 3   1.9378E-009 /_   88.3 1.6136E-008     0.208
N274248 ................... 3   1.9378E-009 /_   88.3 1.6137E-008     0.208
N274258 ................... 3   1.9379E-009 /_   88.3 1.6137E-008     0.208
N274269 ................... 3   1.9379E-009 /_   88.3 1.6138E-008     0.208
N274281 ................... 3   1.938E-009 /_   88.3 1.6138E-008     0.208
N274291 ................... 3   1.9381E-009 /_   88.3 1.6139E-008     0.208
N274305 ................... 3   1.9381E-009 /_   88.3 1.6139E-008     0.208
N274321 ................... 3   1.9382E-009 /_   88.3 1.614E-008     0.208
N274333 ................... 3   1.9383E-009 /_   88.3 1.6141E-008     0.208
N284042 ................... 3   1.9385E-009 /_   88.3 1.6142E-008     0.208
N284038 ................... 3   1.9386E-009 /_   88.3 1.6143E-008     0.208
N284090 ................... 3   7.3701E-010 /_   87.6 6.1372E-009     0.208
N274352 ................... 3   7.3697E-010 /_   87.6 6.1369E-009     0.208
N274384 ................... 3   7.3713E-010 /_   87.6 6.1382E-009     0.208
N284104 ................... 3   7.3729E-010 /_   87.6 6.1395E-009     0.208
N284081 ................... 3   7.3743E-010 /_   87.6 6.1407E-009     0.208
N284089 ................... 3   7.3751E-010 /_   87.6 6.1414E-009     0.208
N284074 ................... 3   7.3764E-010 /_   87.6 6.1424E-009     0.208
N274517 ................... 2   7.2788E-010 /_ -153.3 6.0612E-009     0.208
N274540 ................... 2   7.2612E-010 /_ -153.3 6.0465E-009     0.208
N274521 ................... 2   7.2369E-010 /_ -153.3 6.0263E-009     0.208
N274531 ................... 2   7.2447E-010 /_ -153.3 6.0328E-009     0.208
N284284 ................... 2   7.2555E-010 /_ -153.3 6.0418E-009     0.208
N274539 ................... 2   7.2287E-010 /_ -153.3 6.0194E-009     0.208
N274534 ................... 2   7.222E-010 /_ -153.3 6.0139E-009     0.208
N284200 ................... 2   7.3443E-010 /_ -152.5 6.1157E-009     0.208
N284181 ................... 2   7.347E-010 /_ -152.5 6.118E-009     0.208
N284208 ................... 2   7.3436E-010 /_ -152.6 6.1152E-009     0.208
N284225 ................... 2   7.3423E-010 /_ -152.6 6.1141E-009     0.208
N284250 ................... 2   7.3412E-010 /_ -152.6 6.1131E-009     0.208
N284255 ................... 2   7.3412E-010 /_ -152.6 6.1131E-009     0.208
N284220 ................... 2   7.3283E-010 /_ -152.7 6.1024E-009     0.208
N284204 ................... 2   7.3325E-010 /_ -152.7 6.1059E-009     0.208
N284232 ................... 2   7.3271E-010 /_ -152.7 6.1014E-009     0.208
...